/*--------------------------------*- C++ -*----------------------------------*\
| =========                 |                                                 |
| \\      /  F ield         | OpenFOAM: The Open Source CFD Toolbox           |
|  \\    /   O peration     | Version:  v2506                                 |
|   \\  /    A nd           | Website:  www.openfoam.com                      |
|    \\/     M anipulation  |                                                 |
\*---------------------------------------------------------------------------*/
FoamFile
{
    version     2.0;
    format      ascii;
    class       dictionary;
    object      transportProperties;
}
// * * * * * * * * * * * * * * * * * * * * * * * * * * * * * * * * * * * * * //

// Interface tracking method: isoAdvector or MULES
interfaceTrackingScheme MULES;

phases          (metal gas);

metal
{
    transportModel  Newtonian;     // Viscosity model for the metal phase
    nu              4.943922e-07;          // Kinematic viscosity [m2/s]

    rho             7883.4372;          // Density [kg/m3]

    Tsolidus 1658;                 // Solidus temperature [K]
    Tliquidus 1723;                // Liquidus temperature [K]
    LatentHeat 271498.67;              // Latent heat of fusion [J/kg]
    beta    1.8e-5;                // Thermal expansion coefficient [1/K]

    table_kappa                    // Metal thermal conductivity table: (T [K], kappa [W/m/K])
    (
        (300    14.68)
        (500    17.60)
        (800    21.98)
        (1200    27.82)
        (1658    34.51)
        (1723    26.90)
        (2500    26.90)
        (5000    26.90)
    );

    table_cp                       // Metal specific heat table: (T [K], cp [J/kg/K])
    (
        (300    492.8)
        (500    540.8)
        (800    612.8)
        (1200    708.8)
        (1658    818.7)
        (1723    790.0)
        (2500    790.0)
        (5000    790.0)
    );

    elec_resistivity	1e-6;        // Electrical resistivity [ohm m]; calibrated (50um mesh, score 7.79); coarse 125um best was 2.45e-6
}

gas
{
    transportModel  Newtonian;     // Viscosity model for the gas phase

    nu              1.48e-05;      // Kinematic viscosity [m2/s]

    rho             1;             // Density [kg/m3]

    poly_kappa   (0.04 0 0 0 0 0 0 0);       // Gas thermal conductivity polynomial [W/m/K]
    poly_cp   (520 0.0 0 0 0 0 0 0);         // Gas specific heat polynomial [J/kg/K]

    Tsolidus    1.0;              // Dummy gas solidus temperature [K]
    Tliquidus   10.0;             // Dummy gas liquidus temperature [K]
    LatentHeat  1;                // Dummy gas latent heat [J/kg]
    beta    4.0e-5;               // Gas thermal expansion coefficient [1/K]
}

emS                         0.3;       // Solid emissivity [-]
emL                         0.3;       // Liquid emissivity [-]
TRef                        300;        // Radiation reference/background temperature [K]
T_ambient                   300;        // Ambient temperature for convection [K]
h_convection                0;          // Convective heat transfer coefficient [W/m2/K]

sigma            1.6937903;            // Surface tension [N/m]
Marangoni_Constant	-0.00045;    // d(sigma)/dT for Marangoni force [N/m/K] (weakened from -6.4e-4 to reduce outward flow → deeper)
p0	101325.0;                    // Atmospheric pressure reference [Pa]
p_amb   101325.0;                 // Ambient chamber pressure used to choose Tvap [Pa]
beta_r  0.079125696;                    // Recoil pressure accommodation coefficient [-]
Tvap	3122;                    // Vaporization temperature at p_amb [K]
Tvap_atm    3122;                // Vaporization temperature at p0 [K]
recoilPressureModel condensation; // condensation or modifiedReducedPressure
recoilTransitionWidth       10; // Smooth recoil activation width above Tvap [K]
Mm	0.056;                       // Molar mass [kg/mol]
LatentHeatVap 5679311;            // Latent heat of vaporization [J/kg]

LeeCoeff        2e5;             // Lee volumetric evaporation coeff [1/s] (reduced from 5e5 to allow higher T)

V_scan          0.9;            // Scan speed (900 mm/s)
scanDirection   (0 0 1);        // Scanning along +Z direction

// ************************************************************************* //
